data_SiO2
_symmetry_space_group_name_H-M   'P 1'
_cell_length_a   13.03427205
_cell_length_b   13.03427205
_cell_length_c   7.59682931
_cell_angle_alpha   90.00000000
_cell_angle_beta   90.00000000
_cell_angle_gamma   120.00000000
_symmetry_Int_Tables_number   1
_chemical_formula_structural   SiO2
_chemical_formula_sum   'Si18 O36'
_cell_volume   1117.72911271
_cell_formula_units_Z   18
loop_
 _symmetry_equiv_pos_site_id
 _symmetry_equiv_pos_as_xyz
  1  'x, y, z'
loop_
 _atom_type_symbol
 _atom_type_oxidation_number
  Si4+  4.0
  O2-  -2.0
loop_
 _atom_site_type_symbol
 _atom_site_label
 _atom_site_symmetry_multiplicity
 _atom_site_fract_x
 _atom_site_fract_y
 _atom_site_fract_z
 _atom_site_occupancy
  Si4+  Si0  1  0.66666702  0.57148905  0.70282728  1
  Si4+  Si1  1  0.42851095  0.09517798  0.70282728  1
  Si4+  Si2  1  0.90482202  0.33333298  0.70282728  1
  Si4+  Si3  1  0.66666702  0.57148905  0.29717273  1
  Si4+  Si4  1  0.42851095  0.09517798  0.29717273  1
  Si4+  Si5  1  0.90482202  0.33333298  0.29717273  1
  Si4+  Si6  1  0.42851095  0.33333298  0.70282728  1
  Si4+  Si7  1  0.90482202  0.57148905  0.70282728  1
  Si4+  Si8  1  0.66666702  0.09517798  0.70282728  1
  Si4+  Si9  1  0.42851095  0.33333298  0.29717273  1
  Si4+  Si10  1  0.90482202  0.57148905  0.29717273  1
  Si4+  Si11  1  0.66666702  0.09517798  0.29717273  1
  Si4+  Si12  1  0.75776157  0.75677047  0.00000000  1
  Si4+  Si13  1  0.24322953  0.00099111  0.00000000  1
  Si4+  Si14  1  0.99900889  0.24223843  0.00000000  1
  Si4+  Si15  1  0.24322953  0.24223843  0.00000000  1
  Si4+  Si16  1  0.99900889  0.75677047  0.00000000  1
  Si4+  Si17  1  0.75776157  0.00099111  0.00000000  1
  O2-  O18  1  0.76807157  0.53614315  0.73249313  1
  O2-  O19  1  0.46385685  0.23192843  0.73249313  1
  O2-  O20  1  0.76807157  0.23192843  0.73249313  1
  O2-  O21  1  0.76807157  0.53614315  0.26750688  1
  O2-  O22  1  0.46385685  0.23192843  0.26750688  1
  O2-  O23  1  0.76807157  0.23192843  0.26750688  1
  O2-  O24  1  0.54054817  0.45945183  0.75408832  1
  O2-  O25  1  0.54054817  0.08109634  0.75408832  1
  O2-  O26  1  0.91890366  0.45945183  0.75408832  1
  O2-  O27  1  0.54054817  0.45945183  0.24591169  1
  O2-  O28  1  0.54054817  0.08109634  0.24591169  1
  O2-  O29  1  0.91890366  0.45945183  0.24591169  1
  O2-  O30  1  0.69186817  0.68188734  0.82578586  1
  O2-  O31  1  0.31811266  0.00998084  0.82578586  1
  O2-  O32  1  0.99001916  0.30813183  0.82578586  1
  O2-  O33  1  0.69186817  0.68188734  0.17421415  1
  O2-  O34  1  0.31811266  0.00998084  0.17421415  1
  O2-  O35  1  0.99001916  0.30813183  0.17421415  1
  O2-  O36  1  0.31811266  0.30813183  0.82578586  1
  O2-  O37  1  0.99001916  0.68188734  0.82578586  1
  O2-  O38  1  0.69186817  0.00998084  0.82578586  1
  O2-  O39  1  0.31811266  0.30813183  0.17421415  1
  O2-  O40  1  0.99001916  0.68188734  0.17421415  1
  O2-  O41  1  0.69186817  0.00998084  0.17421415  1
  O2-  O42  1  0.66645629  0.60823386  0.50000000  1
  O2-  O43  1  0.39176614  0.05822244  0.50000000  1
  O2-  O44  1  0.94177756  0.33354371  0.50000000  1
  O2-  O45  1  0.39176614  0.33354371  0.50000000  1
  O2-  O46  1  0.94177756  0.60823386  0.50000000  1
  O2-  O47  1  0.66645629  0.05822244  0.50000000  1
  O2-  O48  1  0.89426233  0.78852467  0.00000000  1
  O2-  O49  1  0.21147533  0.10573767  0.00000000  1
  O2-  O50  1  0.89426233  0.10573767  0.00000000  1
  O2-  O51  1  0.75205354  0.87602677  0.00000000  1
  O2-  O52  1  0.12397323  0.87602677  0.00000000  1
  O2-  O53  1  0.12397323  0.24794646  0.00000000  1